STAAD SPACE
START JOB INFORMATION
ENGINEER DATE 15-Feb-26
END JOB INFORMATION
INPUT WIDTH 79
UNIT FEET KIP
DEFINE MATERIAL START
ISOTROPIC STEEL
E 4.28151e+06
POISSON 0.3
DENSITY 0.489024
ALPHA 1.2e-05
DAMP 0.03
G 1.64674e+06
TYPE STEEL
STRENGTH FY 5221.36 FU 8354.17 RY 1.5 RT 1.2
END DEFINE MATERIAL
FINISH
